-------------------------------------------------------
          Amber 20 PMEMD                              2020
          -------------------------------------------------------

  [-O]verwriting output

File Assignments:

 Here is the input file:

heat ras-raf
 &cntrl
  imin=0,irest=1,ntx=5,
  nstlim=25000,dt=0.002,
  ntc=2,ntf=2,
  cut=8.0, ntb=2, ntp=1, taup=1.0,
  ntpr=500, ntwx=500,
  ntt=3, gamma_ln=2.0,
  temp0=300.0, ig=-1,
  ntr=1, restraintmask=':1-258',
  restraint_wt=1.0,
 /

Note: ig = -1. Setting random seed to   999539 based on wallclock time in
      microseconds and disabling the synchronization of random numbers
      between tasks to improve performance.

--------------------------------------------------------------------------------
   1.  RESOURCE   USE:
--------------------------------------------------------------------------------

 getting box info from netcdf restart file
 NATOM  =   49205 NTYPES =      27 NBONH =   47002 MBONA  =    2175
 NTHETH =    4869 MTHETA =    2950 NPHIH =    9759 MPHIA  =    9416
 NHPARM =       0 NPARM  =       0 NNB   =   83555 NRES   =   15294
 NBONA  =    2175 NTHETA =    2950 NPHIA =    9416 NUMBND =      83
 NUMANG =     186 NPTRA  =     219 NATYP =      49 NPHB   =       1
 IFBOX  =       1 NMXRS  =      54 IFCAP =       0 NEXTRA =       0
 NCOPY  =       0

     BOX TYPE: RECTILINEAR

--------------------------------------------------------------------------------
   2.  CONTROL  DATA  FOR  THE  RUN
--------------------------------------------------------------------------------

AS4

General flags:
     imin    =       0, nmropt  =       0

Nature and format of input:
     ntx     =       5, irest   =       1, ntrx    =       1

Nature and format of output:
     ntxo    =       2, ntpr    =     500, ntrx    =       1, ntwr    =   25000
     iwrap   =       0, ntwx    =     500, ntwv    =       0, ntwe    =       0
     ioutfm  =       1, ntwprt  =       0, idecomp =       0, rbornstat=      0

Potential function:
     ntf     =       2, ntb     =       2, igb     =       0, nsnb    =      25
     ipol    =       0, gbsa    =       0, iesp    =       0
     dielc   =   1.00000, cut     =   8.00000, intdiel =   1.00000

Frozen or restrained atoms:
     ibelly  =       0, ntr     =       1
     restraint_wt =   1.00000

Molecular dynamics:
     nstlim  =     25000, nscm    =         0, nrespa  =         1
     t       =   0.00000, dt      =   0.00200, vlimit  =  20.00000

Langevin dynamics temperature regulation:
     ig      =  999539
     temp0   = 300.00000, tempi   =   0.00000, gamma_ln=   2.00000

Pressure regulation:
     ntp     =       1
     pres0   =   1.00000, comp    =  44.60000, taup    =   1.00000

SHAKE:
     ntc     =       2, jfastw  =       0
     tol     =   0.00001

Ewald parameters:
     verbose =       0, ew_type =       0, nbflag  =       1, use_pme =       1
     vdwmeth =       1, eedmeth =       1, netfrc  =       1
     Box X =   81.695   Box Y =   95.626   Box Z =   76.668
     Alpha =   90.000   Beta  =   90.000   Gamma =   90.000
     NFFT1 =   90       NFFT2 =   96       NFFT3 =   80
     Cutoff=    8.000   Tol   =0.100E-04
     Ewald Coefficient =  0.34864
     Interpolation order =    4

    LOADING THE CONSTRAINED ATOMS AS GROUPS

   5.  REFERENCE ATOM COORDINATES

  AS4
     Mask :1-258; matches  4259 atoms

--------------------------------------------------------------------------------
   3.  ATOMIC COORDINATES AND VELOCITIES
--------------------------------------------------------------------------------

AS4
 begin time read from input coords =    50.000 ps

 Number of triangulated 3-point waters found:    14955

     Sum of charges from parm topology file =   0.00029984
     Forcing neutrality...

--------------------------------------------------------------------------------
   4.  RESULTS
 NSTEP =      500   TIME(PS) =      51.000  TEMP(K) =   296.93  PRESS =  -268.1
 Etot   =   -123741.4336  EKtot   =     29683.9784  EPtot      =   -153425.4119
 BOND   =       770.6323  ANGLE   =      2099.7084  DIHED      =      3508.3112
 1-4 NB =      1052.6210  1-4 EEL =     11193.4885  VDWAALS    =     19021.9773
 EELEC  =   -191473.7079  EHBOND  =         0.0000  RESTRAINT  =       401.5573
 EAMBER (non-restraint)  =   -153826.9692
 EKCMT  =     13392.2420  VIRIAL  =     16811.9726  VOLUME     =    590681.7502
                                                    Density    =         0.8489
 Ewald error estimate:   0.1271E-03
 ------------------------------------------------------------------------------

      A V E R A G E S   O V E R      50 S T E P S

 NSTEP =    25000   TIME(PS) =     100.000  TEMP(K) =   300.01  PRESS =   -82.7
 Etot   =   -125573.2792  EKtot   =     29991.2575  EPtot      =   -155564.5367
 BOND   =       792.6933  ANGLE   =      2116.6496  DIHED      =      3460.0668
 1-4 NB =      1031.8002  1-4 EEL =     11194.7187  VDWAALS    =     19061.5096
 EELEC  =   -193646.9791  EHBOND  =         0.0000  RESTRAINT  =       425.0041
 EAMBER (non-restraint)  =   -155989.5408
 EKCMT  =     13485.3669  VIRIAL  =     14453.8883  VOLUME     =    514147.4637
                                                    Density    =         0.9780
 Ewald error estimate:   0.5061E-04
 ------------------------------------------------------------------------------

      R M S  F L U C T U A T I O N S

 NSTEP =    25000   TIME(PS) =     100.000  TEMP(K) =     1.61  PRESS =   122.6
 Etot   =       949.7782  EKtot   =       161.0913  EPtot      =       967.3788
 BOND   =        23.5813  ANGLE   =        30.7571  DIHED      =        19.4485
 1-4 NB =        13.0119  1-4 EEL =        25.0057  VDWAALS    =       167.1457
 EELEC  =      1016.6115  EHBOND  =         0.0000  RESTRAINT  =        13.3938
 EAMBER (non-restraint)  =       953.9850
 EKCMT  =        86.5323  VIRIAL  =      1424.1624  VOLUME     =     28417.1949
                                                    Density    =         0.0507
 Ewald error estimate:   0.3608E-04
 ------------------------------------------------------------------------------
