-------------------------------------------------------
          Amber 20 PMEMD                              2020
          -------------------------------------------------------

  [-O]verwriting output

File Assignments:

 Here is the input file:

heat ras-raf
 &cntrl
  imin=0,irest=1,ntx=5,
  nstlim=25000,dt=0.002,
  ntc=2,ntf=2,
  cut=8.0, ntb=2, ntp=1, taup=1.0,
  ntpr=500, ntwx=500,
  ntt=3, gamma_ln=2.0,
  temp0=300.0, ig=-1,
  ntr=1, restraintmask=':1-258',
  restraint_wt=1.0,
 /

Note: ig = -1. Setting random seed to   416082 based on wallclock time in
      microseconds and disabling the synchronization of random numbers
      between tasks to improve performance.

--------------------------------------------------------------------------------
   1.  RESOURCE   USE:
--------------------------------------------------------------------------------

 getting box info from netcdf restart file
 NATOM  =   49207 NTYPES =      26 NBONH =   47004 MBONA  =    2175
 NTHETH =    4871 MTHETA =    2952 NPHIH =    9760 MPHIA  =    9421
 NHPARM =       0 NPARM  =       0 NNB   =   83567 NRES   =   15294
 NBONA  =    2175 NTHETA =    2952 NPHIA =    9421 NUMBND =      82
 NUMANG =     184 NPTRA  =     219 NATYP =      48 NPHB   =       1
 IFBOX  =       1 NMXRS  =      56 IFCAP =       0 NEXTRA =       0
 NCOPY  =       0

     BOX TYPE: RECTILINEAR

--------------------------------------------------------------------------------
   2.  CONTROL  DATA  FOR  THE  RUN
--------------------------------------------------------------------------------

MOL

General flags:
     imin    =       0, nmropt  =       0

Nature and format of input:
     ntx     =       5, irest   =       1, ntrx    =       1

Nature and format of output:
     ntxo    =       2, ntpr    =     500, ntrx    =       1, ntwr    =   25000
     iwrap   =       0, ntwx    =     500, ntwv    =       0, ntwe    =       0
     ioutfm  =       1, ntwprt  =       0, idecomp =       0, rbornstat=      0

Potential function:
     ntf     =       2, ntb     =       2, igb     =       0, nsnb    =      25
     ipol    =       0, gbsa    =       0, iesp    =       0
     dielc   =   1.00000, cut     =   8.00000, intdiel =   1.00000

Frozen or restrained atoms:
     ibelly  =       0, ntr     =       1
     restraint_wt =   1.00000

Molecular dynamics:
     nstlim  =     25000, nscm    =         0, nrespa  =         1
     t       =   0.00000, dt      =   0.00200, vlimit  =  20.00000

Langevin dynamics temperature regulation:
     ig      =  416082
     temp0   = 300.00000, tempi   =   0.00000, gamma_ln=   2.00000

Pressure regulation:
     ntp     =       1
     pres0   =   1.00000, comp    =  44.60000, taup    =   1.00000

SHAKE:
     ntc     =       2, jfastw  =       0
     tol     =   0.00001

Ewald parameters:
     verbose =       0, ew_type =       0, nbflag  =       1, use_pme =       1
     vdwmeth =       1, eedmeth =       1, netfrc  =       1
     Box X =   81.695   Box Y =   95.626   Box Z =   76.668
     Alpha =   90.000   Beta  =   90.000   Gamma =   90.000
     NFFT1 =   90       NFFT2 =   96       NFFT3 =   80
     Cutoff=    8.000   Tol   =0.100E-04
     Ewald Coefficient =  0.34864
     Interpolation order =    4

    LOADING THE CONSTRAINED ATOMS AS GROUPS

   5.  REFERENCE ATOM COORDINATES

  MOL
     Mask :1-258; matches  4261 atoms

--------------------------------------------------------------------------------
   3.  ATOMIC COORDINATES AND VELOCITIES
--------------------------------------------------------------------------------

MOL
 begin time read from input coords =    50.000 ps

 Number of triangulated 3-point waters found:    14955

     Sum of charges from parm topology file =  -0.00020017
     Forcing neutrality...

--------------------------------------------------------------------------------
   4.  RESULTS
 NSTEP =      500   TIME(PS) =      51.000  TEMP(K) =   299.59  PRESS =  -258.8
 Etot   =   -123521.6191  EKtot   =     29951.1917  EPtot      =   -153472.8109
 BOND   =       822.6980  ANGLE   =      2075.2732  DIHED      =      3453.0919
 1-4 NB =      1033.5303  1-4 EEL =     11210.8308  VDWAALS    =     18999.6013
 EELEC  =   -191458.4263  EHBOND  =         0.0000  RESTRAINT  =       390.5898
 EAMBER (non-restraint)  =   -153863.4007
 EKCMT  =     13402.7773  VIRIAL  =     16702.1040  VOLUME     =    590344.9583
                                                    Density    =         0.8494
 Ewald error estimate:   0.9202E-05
 ------------------------------------------------------------------------------

      A V E R A G E S   O V E R      50 S T E P S

 NSTEP =    25000   TIME(PS) =     100.000  TEMP(K) =   299.86  PRESS =   -81.8
 Etot   =   -125541.8841  EKtot   =     29977.8040  EPtot      =   -155519.6881
 BOND   =       791.0480  ANGLE   =      2118.1934  DIHED      =      3457.8273
 1-4 NB =      1034.7226  1-4 EEL =     11205.0846  VDWAALS    =     19112.5475
 EELEC  =   -193662.8179  EHBOND  =         0.0000  RESTRAINT  =       423.7064
 EAMBER (non-restraint)  =   -155943.3945
 EKCMT  =     13487.9990  VIRIAL  =     14451.1581  VOLUME     =    514852.5232
                                                    Density    =         0.9765
 Ewald error estimate:   0.4458E-04
 ------------------------------------------------------------------------------

      R M S  F L U C T U A T I O N S

 NSTEP =    25000   TIME(PS) =     100.000  TEMP(K) =     1.21  PRESS =   131.6
 Etot   =       955.2313  EKtot   =       121.3866  EPtot      =       921.1498
 BOND   =        20.2675  ANGLE   =        37.6971  DIHED      =        17.4213
 1-4 NB =        12.6735  1-4 EEL =        29.1672  VDWAALS    =       179.7491
 EELEC  =      1002.7501  EHBOND  =         0.0000  RESTRAINT  =        12.7857
 EAMBER (non-restraint)  =       908.3641
 EKCMT  =        81.3118  VIRIAL  =      1531.0636  VOLUME     =     27675.2051
                                                    Density    =         0.0494
 Ewald error estimate:   0.3020E-04
 ------------------------------------------------------------------------------
