-------------------------------------------------------
          Amber 20 PMEMD                              2020
          -------------------------------------------------------

  [-O]verwriting output

File Assignments:

 Here is the input file:

heat ras-raf
 &cntrl
  imin=0,irest=1,ntx=5,
  nstlim=250000,dt=0.002,
  ntc=2,ntf=2,
  cut=8.0, ntb=2, ntp=1, taup=2.0,
  ntpr=1000, ntwx=1000,
  ntt=3, gamma_ln=2.0,
  temp0=300.0, ig=-1,
 /

Note: ig = -1. Setting random seed to   689912 based on wallclock time in
      microseconds.

--------------------------------------------------------------------------------
   1.  RESOURCE   USE:
--------------------------------------------------------------------------------

 getting box info from netcdf restart file
 NATOM  =   49207 NTYPES =      26 NBONH =   47004 MBONA  =    2175
 NTHETH =    4871 MTHETA =    2952 NPHIH =    9760 MPHIA  =    9421
 NHPARM =       0 NPARM  =       0 NNB   =   83567 NRES   =   15294
 NBONA  =    2175 NTHETA =    2952 NPHIA =    9421 NUMBND =      82
 NUMANG =     184 NPTRA  =     219 NATYP =      48 NPHB   =       1
 IFBOX  =       1 NMXRS  =      56 IFCAP =       0 NEXTRA =       0
 NCOPY  =       0

     BOX TYPE: RECTILINEAR

--------------------------------------------------------------------------------
   2.  CONTROL  DATA  FOR  THE  RUN
--------------------------------------------------------------------------------

MOL

General flags:
     imin    =       0, nmropt  =       0

Nature and format of input:
     ntx     =       5, irest   =       1, ntrx    =       1

Nature and format of output:
     ntxo    =       2, ntpr    =    1000, ntrx    =       1, ntwr    =  250000
     iwrap   =       0, ntwx    =    1000, ntwv    =       0, ntwe    =       0
     ioutfm  =       1, ntwprt  =       0, idecomp =       0, rbornstat=      0

Potential function:
     ntf     =       2, ntb     =       2, igb     =       0, nsnb    =      25
     ipol    =       0, gbsa    =       0, iesp    =       0
     dielc   =   1.00000, cut     =   8.00000, intdiel =   1.00000

Frozen or restrained atoms:
     ibelly  =       0, ntr     =       0

Molecular dynamics:
     nstlim  =    250000, nscm    =      1000, nrespa  =         1
     t       =   0.00000, dt      =   0.00200, vlimit  =  -1.00000

Langevin dynamics temperature regulation:
     ig      =  689912
     temp0   = 300.00000, tempi   =   0.00000, gamma_ln=   2.00000

Pressure regulation:
     ntp     =       1
     pres0   =   1.00000, comp    =  44.60000, taup    =   2.00000

SHAKE:
     ntc     =       2, jfastw  =       0
     tol     =   0.00001

Ewald parameters:
     verbose =       0, ew_type =       0, nbflag  =       1, use_pme =       1
     vdwmeth =       1, eedmeth =       1, netfrc  =       1
     Box X =   76.536   Box Y =   89.586   Box Z =   71.826
     Alpha =   90.000   Beta  =   90.000   Gamma =   90.000
     NFFT1 =   80       NFFT2 =   96       NFFT3 =   72
     Cutoff=    8.000   Tol   =0.100E-04
     Ewald Coefficient =  0.34864
     Interpolation order =    4

--------------------------------------------------------------------------------
   3.  ATOMIC COORDINATES AND VELOCITIES
--------------------------------------------------------------------------------

MOL
 begin time read from input coords =   100.000 ps

 Number of triangulated 3-point waters found:    14955

     Sum of charges from parm topology file =  -0.00020017
     Forcing neutrality...

--------------------------------------------------------------------------------
   4.  RESULTS
 NSTEP =     1000   TIME(PS) =     102.000  TEMP(K) =   298.72  PRESS =    67.8
 Etot   =   -126960.6636  EKtot   =     29864.2383  EPtot      =   -156824.9019
 BOND   =       738.5790  ANGLE   =      2205.4617  DIHED      =      3474.4580
 1-4 NB =      1023.4726  1-4 EEL =     11166.4188  VDWAALS    =     19147.0960
 EELEC  =   -194580.3880  EHBOND  =         0.0000  RESTRAINT  =         0.0000
 EKCMT  =     13414.1651  VIRIAL  =     12693.4226  VOLUME     =    492080.3658
                                                    Density    =         1.0190
 ------------------------------------------------------------------------------

      A V E R A G E S   O V E R     250 S T E P S

 NSTEP =   250000   TIME(PS) =     600.000  TEMP(K) =   300.03  PRESS =     9.1
 Etot   =   -126760.7043  EKtot   =     29994.7617  EPtot      =   -156755.4661
 BOND   =       810.1354  ANGLE   =      2176.7597  DIHED      =      3462.9838
 1-4 NB =      1013.9702  1-4 EEL =     11181.5038  VDWAALS    =     19199.6711
 EELEC  =   -194600.4899  EHBOND  =         0.0000  RESTRAINT  =         0.0000
 EKCMT  =     13498.4436  VIRIAL  =     13401.3665  VOLUME     =    492582.3902
                                                    Density    =         1.0179
 ------------------------------------------------------------------------------

      R M S  F L U C T U A T I O N S

 NSTEP =   250000   TIME(PS) =     600.000  TEMP(K) =     1.39  PRESS =   109.5
 Etot   =       228.8171  EKtot   =       138.5300  EPtot      =       183.0802
 BOND   =        25.1291  ANGLE   =        34.8153  DIHED      =        20.3181
 1-4 NB =        13.3990  1-4 EEL =        38.3349  VDWAALS    =       164.3640
 EELEC  =       266.2228  EHBOND  =         0.0000  RESTRAINT  =         0.0000
 EKCMT  =        94.3955  VIRIAL  =      1177.5133  VOLUME     =       526.4906
                                                    Density    =         0.0011
 ------------------------------------------------------------------------------
